NDPIS/Case3/WithDG/case3_WithDG_Power_elem_kVA.txt

CIRCUIT ELEMENT POWER FLOW

(Power Flow into element from indicated Bus)

Power Delivery Elements

  Bus     Phase     kW     +j   kvar         kVA         PF

ELEMENT = "Vsource.SOURCE"
SOURCEBUS     1     -1415.1 +j   -546.9     1517.1       0.9328
SOURCEBUS     2     -1415.1 +j   -546.9     1517.1       0.9328
SOURCEBUS     3     -1415.1 +j   -546.9     1517.1       0.9328
   TERMINAL TOTAL . -4245.3 +j  -1640.8     4551.3       0.9328
SOURCEBUS     0         0.0 +j      0.0        0.0       1.0000
SOURCEBUS     0         0.0 +j      0.0        0.0       1.0000
SOURCEBUS     0         0.0 +j      0.0        0.0       1.0000
   TERMINAL TOTAL .     0.0 +j      0.0        0.0       1.0000

ELEMENT = "Line.01"
SOURCEBUS     1      1415.1 +j    546.9     1517.1       0.9328
SOURCEBUS     2      1415.1 +j    546.9     1517.1       0.9328
SOURCEBUS     3      1415.1 +j    546.9     1517.1       0.9328
   TERMINAL TOTAL .  4245.3 +j   1640.8     4551.3       0.9328
2             1     -1402.8 +j   -530.6     1499.8       0.9353
2             2     -1402.8 +j   -530.6     1499.8       0.9353
2             3     -1402.8 +j   -530.6     1499.8       0.9353
   TERMINAL TOTAL . -4208.5 +j  -1591.7     4499.4       0.9353

ELEMENT = "Line.02"
2             1      1402.8 +j    530.6     1499.8       0.9353
2             2      1402.8 +j    530.6     1499.8       0.9353
2             3      1402.8 +j    530.6     1499.8       0.9353
   TERMINAL TOTAL .  4208.5 +j   1591.7     4499.4       0.9353
3             1     -1398.5 +j   -519.0     1491.7       0.9375
3             2     -1398.5 +j   -519.0     1491.7       0.9375
3             3     -1398.5 +j   -519.0     1491.7       0.9375
   TERMINAL TOTAL . -4195.4 +j  -1557.0     4475.0       0.9375

ELEMENT = "Line.03"
3             1       881.8 +j    285.7      926.9       0.9513
3             2       881.8 +j    285.7      926.9       0.9513
3             3       881.8 +j    285.7      926.9       0.9513
   TERMINAL TOTAL .  2645.5 +j    857.0     2780.8       0.9513
4             1      -880.1 +j   -281.2      924.0       0.9526
4             2      -880.1 +j   -281.2      924.0       0.9526
4             3      -880.1 +j   -281.2      924.0       0.9526
   TERMINAL TOTAL . -2640.4 +j   -843.7     2771.9       0.9526

ELEMENT = "Line.04"
4             1       363.5 +j     47.9      366.6       0.9914
4             2       363.5 +j     47.9      366.6       0.9914
4             3       363.5 +j     47.9      366.6       0.9914
   TERMINAL TOTAL .  1090.5 +j    143.7     1099.9       0.9914
5             1      -363.2 +j    -47.5      366.3       0.9916
5             2      -363.2 +j    -47.5      366.3       0.9916
5             3      -363.2 +j    -47.5      366.3       0.9916
   TERMINAL TOTAL . -1089.5 +j   -142.4     1098.8       0.9916

ELEMENT = "Line.05"
5             1       363.2 +j     47.5      366.3       0.9916
5             2       363.2 +j     47.5      366.3       0.9916
5             3       363.2 +j     47.5      366.3       0.9916
   TERMINAL TOTAL .  1089.5 +j    142.4     1098.8       0.9916
6             1      -361.5 +j    -42.9      364.0       0.9930
6             2      -361.5 +j    -42.9      364.0       0.9930
6             3      -361.5 +j    -42.9      364.0       0.9930
   TERMINAL TOTAL . -1084.4 +j   -128.7     1092.0       0.9930

ELEMENT = "Line.06"
6             1      -105.2 +j   -110.2      152.3       0.6906
6             2      -105.2 +j   -110.2      152.3       0.6906
6             3      -105.2 +j   -110.2      152.3       0.6906
   TERMINAL TOTAL .  -315.6 +j   -330.5      457.0       0.6906
7             1       105.4 +j    110.6      152.8       0.6897
7             2       105.4 +j    110.6      152.8       0.6897
7             3       105.4 +j    110.6      152.8       0.6897
   TERMINAL TOTAL .   316.1 +j    331.8      458.3       0.6897

ELEMENT = "Line.07"
7             1      -105.4 +j     75.8      129.8      -0.8118
7             2      -105.4 +j     75.8      129.8      -0.8118
7             3      -105.4 +j     75.8      129.8      -0.8118
   TERMINAL TOTAL .  -316.1 +j    227.4      389.4      -0.8118
8             1       105.4 +j    -75.6      129.7      -0.8125
8             2       105.4 +j    -75.6      129.7      -0.8125
8             3       105.4 +j    -75.6      129.7      -0.8125
   TERMINAL TOTAL .   316.3 +j   -226.9      389.2      -0.8125

ELEMENT = "Line.08"
8             1      -329.7 +j      2.1      329.7      -1.0000
8             2      -329.7 +j      2.1      329.7      -1.0000
8             3      -329.7 +j      2.1      329.7      -1.0000
   TERMINAL TOTAL .  -989.2 +j      6.2      989.2      -1.0000
9             1       330.0 +j     -1.3      330.0      -1.0000
9             2       330.0 +j     -1.3      330.0      -1.0000
9             3       330.0 +j     -1.3      330.0      -1.0000
   TERMINAL TOTAL .   990.1 +j     -3.9      990.1      -1.0000

ELEMENT = "Line.09"
9             1      -330.0 +j      1.3      330.0      -1.0000
9             2      -330.0 +j      1.3      330.0      -1.0000
9             3      -330.0 +j      1.3      330.0      -1.0000
   TERMINAL TOTAL .  -990.1 +j      3.9      990.1      -1.0000
10            1       332.6 +j     -0.0      332.6      -1.0000
10            2       332.6 +j     -0.0      332.6      -1.0000
10            3       332.6 +j     -0.0      332.6      -1.0000
   TERMINAL TOTAL .   997.9 +j     -0.0      997.9      -1.0000

ELEMENT = "Capacitor.C1"
7             1         0.0 +j   -186.4      186.4       1.0000
7             2         0.0 +j   -186.4      186.4       1.0000
7             3         0.0 +j   -186.4      186.4       1.0000
   TERMINAL TOTAL .     0.0 +j   -559.2      559.2       1.0000
7             0         0.0 +j      0.0        0.0       1.0000
7             0         0.0 +j      0.0        0.0       1.0000
7             0         0.0 +j      0.0        0.0       1.0000
   TERMINAL TOTAL .     0.0 +j      0.0        0.0       1.0000

= = = = = = = = = = = = = = = = = = =  = = = = = = = = = = =  = =

Power Conversion Elements

  Bus     Phase     kW   +j  kvar         kVA         PF

ELEMENT = "Load.1"
3             1     516.7 +j  233.3      566.9       0.9114
3             2     516.7 +j  233.3      566.9       0.9114
3             3     516.7 +j  233.3      566.9       0.9114
  TERMINAL TOTAL  .  1550.0 +j    700.0     1700.7       0.9114

ELEMENT = "Load.2"
4             1     516.7 +j  233.3      566.9       0.9114
4             2     516.7 +j  233.3      566.9       0.9114
4             3     516.7 +j  233.3      566.9       0.9114
  TERMINAL TOTAL  .  1550.0 +j    700.0     1700.7       0.9114

ELEMENT = "Load.3"
6             1     466.7 +j  153.1      491.1       0.9502
6             2     466.7 +j  153.1      491.1       0.9502
6             3     466.7 +j  153.1      491.1       0.9502
  TERMINAL TOTAL  .  1400.0 +j    459.2     1473.4       0.9502

ELEMENT = "Load.4"
8             1     224.3 +j   73.6      236.1       0.9502
8             2     224.3 +j   73.6      236.1       0.9502
8             3     224.3 +j   73.6      236.1       0.9502
  TERMINAL TOTAL  .   673.0 +j    220.7      708.3       0.9502

ELEMENT = "Load.5"
10            1    -332.6 +j    0.0      332.6      -1.0000
10            2    -332.6 +j    0.0      332.6      -1.0000
10            3    -332.6 +j    0.0      332.6      -1.0000
  TERMINAL TOTAL  .  -997.9 +j      0.0      997.9      -1.0000


Total Circuit Losses =   70.3 +j  120.1
